File C:\Users\Admin\Desktop\SB\SB3P.$2k was saved on 5/23/17 at 16:49:17
 
TABLE:  "ACTIVE DEGREES OF FREEDOM"
   UX=Yes   UY=No   UZ=Yes   RX=No   RY=Yes   RZ=No
 
TABLE:  "ANALYSIS OPTIONS"
   Solver=Advanced   SolverProc=Auto   Force32Bit=No   StiffCase=None   GeomMod=No
 
TABLE:  "AUTO WAVE 3 - WAVE CHARACTERISTICS - GENERAL"
   WaveChar=Default   WaveType="From Theory"   KinFactor=1   SWaterDepth=45   WaveHeight=18   WavePeriod=12   WaveTheory=Linear
 
TABLE:  "CASE - MODAL 1 - GENERAL"
   Case=MODAL   ModeType=Eigen   MaxNumModes=5   MinNumModes=1   EigenShift=0   EigenCutoff=0   EigenTol=0,000000001   AutoShift=Yes
 
TABLE:  "CASE - MODAL HISTORY 1 - GENERAL"
   Case=SEN   HistoryType=Transient   OutSteps=400   StepSize=0,025   ConstDamp=0
 
TABLE:  "CASE - MODAL HISTORY 2 - LOAD ASSIGNMENTS"
   Case=SEN   LoadType=Accel   LoadName="Accel U1"   Function=Senoide   TransAccSF=1   TimeFactor=1   ArrivalTime=0   CoordSys=GLOBAL   Angle=0
 
TABLE:  "CONNECTIVITY - FRAME"
   Frame=19   JointI=9   JointJ=12   IsCurved=No
   Frame=25   JointI=13   JointJ=16   IsCurved=No
   Frame=31   JointI=10   JointJ=23   IsCurved=No
   Frame=32   JointI=23   JointJ=14   IsCurved=No
   Frame=33   JointI=11   JointJ=24   IsCurved=No
   Frame=34   JointI=24   JointJ=15   IsCurved=No
   Frame=35   JointI=12   JointJ=25   IsCurved=No
   Frame=36   JointI=25   JointJ=16   IsCurved=No
 
TABLE:  "COORDINATE SYSTEMS"
   Name=GLOBAL   Type=Cartesian   X=0   Y=0   Z=0   AboutZ=0   AboutY=0   AboutX=0
 
TABLE:  "DATABASE DOCUMENTATION"
 
TABLE:  "DATABASE FORMAT TYPES"
   UnitsCurr=Yes   OverrideE=No
 
TABLE:  "FRAME AUTO MESH ASSIGNMENTS"
   Frame=19   AutoMesh=Yes   AtJoints=Yes   AtFrames=No   NumSegments=0   MaxLength=0   MaxDegrees=0
   Frame=25   AutoMesh=Yes   AtJoints=Yes   AtFrames=No   NumSegments=0   MaxLength=0   MaxDegrees=0
   Frame=31   AutoMesh=Yes   AtJoints=Yes   AtFrames=No   NumSegments=0   MaxLength=0   MaxDegrees=0
   Frame=32   AutoMesh=Yes   AtJoints=Yes   AtFrames=No   NumSegments=0   MaxLength=0   MaxDegrees=0
   Frame=33   AutoMesh=Yes   AtJoints=Yes   AtFrames=No   NumSegments=0   MaxLength=0   MaxDegrees=0
   Frame=34   AutoMesh=Yes   AtJoints=Yes   AtFrames=No   NumSegments=0   MaxLength=0   MaxDegrees=0
   Frame=35   AutoMesh=Yes   AtJoints=Yes   AtFrames=No   NumSegments=0   MaxLength=0   MaxDegrees=0
   Frame=36   AutoMesh=Yes   AtJoints=Yes   AtFrames=No   NumSegments=0   MaxLength=0   MaxDegrees=0
 
TABLE:  "FRAME DESIGN PROCEDURES"
   Frame=19   DesignProc="From Material"
   Frame=25   DesignProc="From Material"
   Frame=31   DesignProc="From Material"
   Frame=32   DesignProc="From Material"
   Frame=33   DesignProc="From Material"
   Frame=34   DesignProc="From Material"
   Frame=35   DesignProc="From Material"
   Frame=36   DesignProc="From Material"
 
TABLE:  "FRAME LOAD TRANSFER OPTIONS"
   Frame=19   Transfer=Yes
   Frame=25   Transfer=Yes
   Frame=31   Transfer=Yes
   Frame=32   Transfer=Yes
   Frame=33   Transfer=Yes
   Frame=34   Transfer=Yes
   Frame=35   Transfer=Yes
   Frame=36   Transfer=Yes
 
TABLE:  "FRAME OUTPUT STATION ASSIGNMENTS"
   Frame=19   StationType=MinNumSta   MinNumSta=3   AddAtElmInt=Yes   AddAtPtLoad=Yes
   Frame=25   StationType=MinNumSta   MinNumSta=3   AddAtElmInt=Yes   AddAtPtLoad=Yes
   Frame=31   StationType=MaxStaSpcg   MaxStaSpcg=0,5   AddAtElmInt=Yes   AddAtPtLoad=Yes
   Frame=32   StationType=MaxStaSpcg   MaxStaSpcg=0,5   AddAtElmInt=Yes   AddAtPtLoad=Yes
   Frame=33   StationType=MaxStaSpcg   MaxStaSpcg=0,5   AddAtElmInt=Yes   AddAtPtLoad=Yes
   Frame=34   StationType=MaxStaSpcg   MaxStaSpcg=0,5   AddAtElmInt=Yes   AddAtPtLoad=Yes
   Frame=35   StationType=MaxStaSpcg   MaxStaSpcg=0,5   AddAtElmInt=Yes   AddAtPtLoad=Yes
   Frame=36   StationType=MaxStaSpcg   MaxStaSpcg=0,5   AddAtElmInt=Yes   AddAtPtLoad=Yes
 
TABLE:  "FRAME SECTION ASSIGNMENTS"
   Frame=19   AutoSelect=N.A.   AnalSect=P   MatProp=Default
   Frame=25   AutoSelect=N.A.   AnalSect=P   MatProp=Default
   Frame=31   AutoSelect=N.A.   AnalSect=PavRig   MatProp=Default
   Frame=32   AutoSelect=N.A.   AnalSect=PavRig   MatProp=Default
   Frame=33   AutoSelect=N.A.   AnalSect=PavRig   MatProp=Default
   Frame=34   AutoSelect=N.A.   AnalSect=PavRig   MatProp=Default
   Frame=35   AutoSelect=N.A.   AnalSect=PavRig   MatProp=Default
   Frame=36   AutoSelect=N.A.   AnalSect=PavRig   MatProp=Default
 
TABLE:  "FRAME SECTION PROPERTIES 01 - GENERAL"
   SectionName=FSEC1   Material=A992Fy50   Shape="I/Wide Flange"   t3=0,3048   t2=0,127   tf=0,009652   tw=0,00635   t2b=0,127   tfb=0,009652   Area=0,0042645076   TorsConst=9,65117678053953E-08   I33=6,5724174702235E-05 _
        I22=3,30125717301008E-06   I23=0   AS2=0,00193548   AS3=2,04300666666667E-03   S33=4,3126098885981E-04   S22=5,19883019371667E-05   Z33=4,911874950424E-04   Z22=0,000080716532115   R33=0,124144683132414   R22=2,78230817990979E-02 _
        Color=Magenta   FromFile=No   AMod=1   A2Mod=1   A3Mod=1   JMod=1   I2Mod=1   I3Mod=1   MMod=1   WMod=1   Notes="Added 23/05/2017 16:16:34"
   SectionName=P   Material=Concrete   Shape=Rectangular   t3=0,35   t2=0,35   Area=0,1225   TorsConst=2,11338020833333E-03   I33=1,25052083333333E-03   I22=1,25052083333333E-03   I23=0   AS2=0,102083333333333   AS3=0,102083333333333 _
        S33=7,14583333333333E-03   S22=7,14583333333333E-03   Z33=0,01071875   Z22=0,01071875   R33=0,101036297108185   R22=0,101036297108185   Color=Gray8Dark   FromFile=No   AMod=1000000   A2Mod=1000000   A3Mod=1000000   JMod=1000000 _
        I2Mod=1   I3Mod=1   MMod=0   WMod=0   Notes="Added 23/05/2017 16:18:06"
   SectionName=PavRig   Material=Concrete   Shape=Rectangular   t3=0,4572   t2=0,254   Area=0,1161288   TorsConst=1,63024133627271E-03   I33=0,002022884728416   I22=0,0006243471384   I23=0   AS2=0,096774   AS3=0,096774   S33=0,00884901456 _
        S22=0,0049161192   Z33=0,01327352184   Z22=0,0073741788   R33=0,131982271536748   R22=7,33234841870825E-02   Color=White   FromFile=No   AMod=100000000   A2Mod=100000000   A3Mod=100000000   JMod=100000000   I2Mod=100000000 _
        I3Mod=100000000   MMod=0   WMod=0   Notes="Added 23/05/2017 16:19:23"
 
TABLE:  "FRAME SECTION PROPERTIES 03 - CONCRETE BEAM"
   SectionName=P   RebarMatL=A615Gr60   RebarMatC=A615Gr60   TopCover=0,06   BotCover=0,06   TopLeftArea=0   TopRghtArea=0   BotLeftArea=0   BotRghtArea=0
   SectionName=PavRig   RebarMatL=A615Gr60   RebarMatC=A615Gr60   TopCover=0,06   BotCover=0,06   TopLeftArea=0   TopRghtArea=0   BotLeftArea=0   BotRghtArea=0
 
TABLE:  "FUNCTION - PLOT FUNCTIONS"
   PlotFunc="Input Energy"   Type=Energy   Component=Input   Mode=All
   PlotFunc=Joint10   Type=Joint   ObjectLabel=10   Component=RelDispU1   Mode=All
   PlotFunc=Joint11   Type=Joint   ObjectLabel=11   Component=RelDispU1   Mode=All
   PlotFunc=Joint12   Type=Joint   ObjectLabel=12   Component=RelDispU1   Mode=All
   PlotFunc=Joint10-1   Type=Joint   ObjectLabel=10   Component=RelDispU1   Mode=All
   PlotFunc=Joint11-1   Type=Joint   ObjectLabel=11   Component=RelDispU1   Mode=All
   PlotFunc=Joint12-1   Type=Joint   ObjectLabel=12   Component=RelDispU1   Mode=All
 
TABLE:  "FUNCTION - POWER SPECTRAL DENSITY - USER"
   Name=UNIFPSD   Frequency=0   Value=1
   Name=UNIFPSD   Frequency=1   Value=1
 
TABLE:  "FUNCTION - RESPONSE SPECTRUM - USER"
   Name=UNIFRS   Period=0   Accel=1   FuncDamp=0,05
   Name=UNIFRS   Period=1   Accel=1
 
TABLE:  "FUNCTION - STEADY STATE - USER"
   Name=UNIFSS   Frequency=0   Value=1
   Name=UNIFSS   Frequency=1   Value=1
 
TABLE:  "FUNCTION - TIME HISTORY - SINE"
   Name=Senoide   Period=1,2566   StepsPerCyc=50   NumCycles=20   Amplitude=5
 
TABLE:  "FUNCTION - TIME HISTORY - USER"
   Name=RAMPTH   Time=0   Value=0
   Name=RAMPTH   Time=1   Value=1
   Name=RAMPTH   Time=4   Value=1
   Name=UNIFTH   Time=0   Value=1
   Name=UNIFTH   Time=1   Value=1
 
TABLE:  "GRID LINES"
   CoordSys=GLOBAL   AxisDir=X   GridID=A   XRYZCoord=0   LineType=Primary   LineColor=Gray4   Visible=Yes   BubbleLoc=End   AllVisible=Yes   BubbleSize=0,75
   CoordSys=GLOBAL   AxisDir=X   GridID=B   XRYZCoord=3   LineType=Primary   LineColor=Gray4   Visible=Yes   BubbleLoc=End
   CoordSys=GLOBAL   AxisDir=Y   GridID=1   XRYZCoord=0   LineType=Primary   LineColor=Gray4   Visible=Yes   BubbleLoc=Start
   CoordSys=GLOBAL   AxisDir=Z   GridID=Z1   XRYZCoord=0   LineType=Primary   LineColor=Gray4   Visible=Yes   BubbleLoc=End
   CoordSys=GLOBAL   AxisDir=Z   GridID=Z2   XRYZCoord=3   LineType=Primary   LineColor=Gray4   Visible=Yes   BubbleLoc=End
   CoordSys=GLOBAL   AxisDir=Z   GridID=Z3   XRYZCoord=6   LineType=Primary   LineColor=Gray4   Visible=Yes   BubbleLoc=End
   CoordSys=GLOBAL   AxisDir=Z   GridID=Z4   XRYZCoord=9   LineType=Primary   LineColor=Gray4   Visible=Yes   BubbleLoc=End
 
TABLE:  "GROUPS 1 - DEFINITIONS"
   GroupName=ALL   Selection=Yes   SectionCut=Yes   Steel=Yes   Concrete=Yes   Aluminum=Yes   ColdFormed=Yes   Stage=Yes   Bridge=Yes   AutoSeismic=No   AutoWind=No   SelDesSteel=No   SelDesAlum=No   SelDesCold=No   MassWeight=Yes   Color=Red
 
TABLE:  "JOINT ADDED MASS ASSIGNMENTS"
   Joint=23   CoordSys="Joint Local"   Mass1=10000   Mass2=0   Mass3=0   MMI1=0   MMI2=0   MMI3=0
   Joint=24   CoordSys="Joint Local"   Mass1=10000   Mass2=0   Mass3=0   MMI1=0   MMI2=0   MMI3=0
   Joint=25   CoordSys="Joint Local"   Mass1=10000   Mass2=0   Mass3=0   MMI1=0   MMI2=0   MMI3=0
 
TABLE:  "JOINT COORDINATES"
   Joint=9   CoordSys=GLOBAL   CoordType=Cartesian   XorR=0   Y=0   Z=0   SpecialJt=No
   Joint=10   CoordSys=GLOBAL   CoordType=Cartesian   XorR=0   Y=0   Z=3   SpecialJt=No
   Joint=11   CoordSys=GLOBAL   CoordType=Cartesian   XorR=0   Y=0   Z=6   SpecialJt=No
   Joint=12   CoordSys=GLOBAL   CoordType=Cartesian   XorR=0   Y=0   Z=9   SpecialJt=No
   Joint=13   CoordSys=GLOBAL   CoordType=Cartesian   XorR=3   Y=0   Z=0   SpecialJt=No
   Joint=14   CoordSys=GLOBAL   CoordType=Cartesian   XorR=3   Y=0   Z=3   SpecialJt=No
   Joint=15   CoordSys=GLOBAL   CoordType=Cartesian   XorR=3   Y=0   Z=6   SpecialJt=No
   Joint=16   CoordSys=GLOBAL   CoordType=Cartesian   XorR=3   Y=0   Z=9   SpecialJt=No
   Joint=23   CoordSys=GLOBAL   CoordType=Cartesian   XorR=1,5   Y=0   Z=3   SpecialJt=No
   Joint=24   CoordSys=GLOBAL   CoordType=Cartesian   XorR=1,5   Y=0   Z=6   SpecialJt=No
   Joint=25   CoordSys=GLOBAL   CoordType=Cartesian   XorR=1,5   Y=0   Z=9   SpecialJt=No
 
TABLE:  "JOINT PATTERN DEFINITIONS"
   Pattern=Default
 
TABLE:  "JOINT RESTRAINT ASSIGNMENTS"
   Joint=9   U1=Yes   U2=Yes   U3=Yes   R1=Yes   R2=Yes   R3=Yes
   Joint=13   U1=Yes   U2=Yes   U3=Yes   R1=Yes   R2=Yes   R3=Yes
 
TABLE:  "LOAD CASE DEFINITIONS"
   Case=DEAD   Type=LinStatic   InitialCond=Zero   DesTypeOpt="Prog Det"   DesignType=OTHER   DesActOpt="Prog Det"   DesignAct=Other   AutoType=None   RunCase=No
   Case=MODAL   Type=LinModal   InitialCond=Zero   DesTypeOpt="Prog Det"   DesignType=OTHER   DesActOpt="Prog Det"   DesignAct=Other   AutoType=None   RunCase=Yes
   Case=SEN   Type=LinModHist   InitialCond=Zero   ModalCase=MODAL   DesTypeOpt="Prog Det"   DesignType=QUAKE   DesActOpt="Prog Det"   DesignAct="Short-Term Composite"   AutoType=None   RunCase=Yes
 
TABLE:  "LOAD PATTERN DEFINITIONS"
   LoadPat=SEN   DesignType=DEAD   SelfWtMult=1
 
TABLE:  "MASS SOURCE"
   MassSource=MSSSRC1   Elements=Yes   Masses=Yes   Loads=No   IsDefault=Yes
 
TABLE:  "MATERIAL PROPERTIES 01 - GENERAL"
   Material=4000Psi   Type=Concrete   SymType=Isotropic   TempDepend=No   Color=Yellow   Notes="Customary f'c 4000 psi 23/05/2017 16:16:11"
   Material=A615Gr60   Type=Rebar   SymType=Uniaxial   TempDepend=No   Color=White   Notes="ASTM A615 Grade 60 23/05/2017 16:18:06"
   Material=A992Fy50   Type=Steel   SymType=Isotropic   TempDepend=No   Color=Magenta   Notes="ASTM A992 Grade 50 23/05/2017 16:16:11"
   Material=Concrete   Type=Concrete   SymType=Isotropic   TempDepend=No   Color=Blue   Notes="Concrete added 23/05/2017 16:17:48"
 
TABLE:  "MATERIAL PROPERTIES 02 - BASIC MECHANICAL PROPERTIES"
   Material=4000Psi   UnitWeight=23563,1216161855   UnitMass=2402,76960558926   E1=24855578060,0518   G12=10356490858,3549   U12=0,2   A1=0,0000099
   Material=A615Gr60   UnitWeight=76972,8639422648   UnitMass=7849,04737995992   E1=199947978795,958   A1=0,0000117
   Material=A992Fy50   UnitWeight=76972,8639422648   UnitMass=7849,04737995992   E1=199947978795,958   G12=76903068767,676   U12=0,3   A1=0,0000117
   Material=Concrete   UnitWeight=23563,1216161855   UnitMass=2402,76960558926   E1=25000000000   G12=10416666666,6667   U12=0,2   A1=0,0000099
 
TABLE:  "MATERIAL PROPERTIES 03A - STEEL DATA"
   Material=A992Fy50   Fy=344737894,475789   Fu=448159262,818526   EffFy=379211683,923368   EffFu=492975189,100378   SSCurveOpt=Simple   SSHysType=Kinematic   SHard=0,015   SMax=0,11   SRup=0,17   FinalSlope=-0,1
 
TABLE:  "MATERIAL PROPERTIES 03B - CONCRETE DATA"
   Material=4000Psi   Fc=27579031,5580631   LtWtConc=No   SSCurveOpt=Mander   SSHysType=Takeda   SFc=0,00221914   SCap=0,005   FinalSlope=-0,1   FAngle=0   DAngle=0
   Material=Concrete   Fc=27579031,5580631   LtWtConc=No   SSCurveOpt=Mander   SSHysType=Takeda   SFc=0,00221914   SCap=0,005   FinalSlope=-0,1   FAngle=0   DAngle=0
 
TABLE:  "MATERIAL PROPERTIES 03E - REBAR DATA"
   Material=A615Gr60   Fy=413685473,370947   Fu=620528210,05642   EffFy=455054020,708041   EffFu=682581031,062062   SSCurveOpt=Simple   SSHysType=Kinematic   SHard=0,01   SCap=0,09   FinalSlope=-0,1   UseCTDef=No
 
TABLE:  "MATERIAL PROPERTIES 06 - DAMPING PARAMETERS"
   Material=4000Psi   ModalRatio=0   VisMass=0   VisStiff=0   HysMass=0   HysStiff=0
   Material=A615Gr60   ModalRatio=0   VisMass=0   VisStiff=0   HysMass=0   HysStiff=0
   Material=A992Fy50   ModalRatio=0   VisMass=0   VisStiff=0   HysMass=0   HysStiff=0
   Material=Concrete   ModalRatio=0   VisMass=0   VisStiff=0   HysMass=0   HysStiff=0
 
TABLE:  "OPTIONS - COLORS - DISPLAY"
   DeviceType=Screen   Points=Black   LinesFrame=Black   LinesFrmDL=Gray4   LinesCable=Black   LinesTendon=Black   SpringLinks=Gray8Dark   Restraints=Gray8Dark   Releases=Gray4   Axes=Black   Text=Black   ShadowLines=Gray4 _
        GuideLines=Gray4   Highlight=Black   Selection=Black   AreaFillBot=Gray4   AreaFillTop=Gray8Dark   AreaFillSd=Gray4   AreaEdge=Black   SolidF1=Gray1Light   SolidF2=Gray2   SolidF3=Gray3   SolidF4=Gray4   SolidF5=Gray5 _
        SolidF6=Gray6   SolidEdge=Black   Floor=Gray4   Background=White   BGLowLeft=White   BGLowRight=White   BGUpRight=White   Darkness=0
   DeviceType=Printer   Points=Gray8Dark   LinesFrame=Black   LinesFrmDL=Gray4   LinesCable=Black   LinesTendon=Black   SpringLinks=Gray8Dark   Restraints=Gray8Dark   Releases=Gray4   Axes=Black   Text=Black   ShadowLines=Gray4 _
        GuideLines=Gray4   Highlight=Black   Selection=Black   AreaFillBot=Gray4   AreaFillTop=Gray8Dark   AreaFillSd=Gray4   AreaEdge=Black   SolidF1=Gray1Light   SolidF2=Gray2   SolidF3=Gray3   SolidF4=Gray4   SolidF5=Gray5 _
        SolidF6=Gray6   SolidEdge=Black   Floor=Gray4   Background=White   BGLowLeft=White   BGLowRight=White   BGUpRight=White   Darkness=0,5
   DeviceType="Color Printer"   Points=Blue   LinesFrame=Blue   LinesFrmDL=Blue   LinesCable=Green   LinesTendon=Green   SpringLinks=Green   Restraints=Green   Releases=Green   Axes=Cyan   Text=Black   ShadowLines=Gray8Dark _
        GuideLines=Gray8Dark   Highlight=Red   Selection=10504778   AreaFillBot=Red   AreaFillTop=16744703   AreaFillSd=Red   AreaEdge=DarkRed   SolidF1=Red   SolidF2=Blue   SolidF3=Green   SolidF4=Yellow   SolidF5=White   SolidF6=Cyan _
        SolidEdge=DarkRed   Floor=Gray4   Background=White   BGLowLeft=White   BGLowRight=White   BGUpRight=White   Darkness=0,5
 
TABLE:  "OPTIONS - COLORS - OUTPUT"
   DeviceType=Screen   Contour1=13107400   Contour2=6553828   Contour3=Red   Contour4=16639   Contour5=Orange   Contour6=43775   Contour7=54527   Contour8=Yellow   Contour9=65408   Contour10=Green   Contour11=8453888   Contour12=Cyan _
        Contour13=16755200   Contour14=16733440   Contour15=Blue   Transpare=0,5   Ratio1=Cyan   Ratio2=Green   Ratio3=Yellow   Ratio4=Orange   Ratio5=Red   RatioNotD=Gray4   RatioNotC=Red   RatioVal1=0,5   RatioVal2=0,7   RatioVal3=0,9 _
        RatioVal4=1   DFillPos=Blue   DFillNeg=Red   DFillRPos=Green   DFillRNeg=Green
   DeviceType=Printer   Contour1=Black   Contour2=3158064   Contour3=4210752   Contour4=5263440   Contour5=6316128   Contour6=7368816   Contour7=Gray8Dark   Contour8=Gray7   Contour9=Gray6   Contour10=Gray5   Contour11=Gray4 _
        Contour12=Gray3   Contour13=Gray2   Contour14=Gray1Light   Contour15=White   Transpare=0   Ratio1=Gray2   Ratio2=Gray4   Ratio3=Gray8Dark   Ratio4=4210752   Ratio5=Black   RatioNotD=Gray4   RatioNotC=Black   RatioVal1=0,5 _
        RatioVal2=0,7   RatioVal3=0,9   RatioVal4=1   DFillPos=Gray8Dark   DFillNeg=Gray8Dark   DFillRPos=4210752   DFillRNeg=4210752
   DeviceType="Color Printer"   Contour1=13107400   Contour2=6553828   Contour3=Red   Contour4=16639   Contour5=Orange   Contour6=43775   Contour7=54527   Contour8=Yellow   Contour9=65408   Contour10=Green   Contour11=8453888 _
        Contour12=Cyan   Contour13=16755200   Contour14=16733440   Contour15=Blue   Transpare=0   Ratio1=Cyan   Ratio2=Green   Ratio3=Yellow   Ratio4=Orange   Ratio5=Red   RatioNotD=Gray4   RatioNotC=Red   RatioVal1=0,5   RatioVal2=0,7 _
        RatioVal3=0,9   RatioVal4=1   DFillPos=Blue   DFillNeg=Red   DFillRPos=Green   DFillRNeg=Green
 
TABLE:  "PREFERENCES - ALUMINUM DESIGN - AA-ASD 2000"
   THDesign=Envelopes   FrameType="Moment Frame"   SRatioLimit=1   MaxIter=1   LatFact=1,33333333333333   UseLatFact=No   Bridge=No
 
TABLE:  "PREFERENCES - COLD FORMED DESIGN - AISI-ASD96"
   THDesign=Envelopes   FrameType="Braced Frame"   SRatioLimit=1   MaxIter=1   OmegaBS=1,67   OmegaBUS=1,67   OmegaBLTB=1,67   OmegaVS=1,67   OmegaVNS=1,5   OmegaT=1,67   OmegaC=1,8
 
TABLE:  "PREFERENCES - CONCRETE DESIGN - ACI 318-11"
   THDesign=Envelopes   NumCurves=24   NumPoints=11   MinEccen=Yes   PatLLF=0,75   UFLimit=0,95   SeisCat=D   PhiT=0,9   PhiCTied=0,65   PhiCSpiral=0,75   PhiV=0,75   PhiVSeismic=0,6   PhiVJoint=0,85
 
TABLE:  "PREFERENCES - DIMENSIONAL"
   MergeTol=0,001   FineGrid=0,25   Nudge=0,25   SelectTol=3   SnapTol=12   SLineThick=2   PLineThick=4   MaxFont=8   MinFont=3   AutoZoom=10   ShrinkFact=70   TextFileLen=240
 
TABLE:  "PREFERENCES - STEEL DESIGN - AISC 360-10"
   THDesign=Envelopes   FrameType=SMF   PatLLF=0,75   SRatioLimit=0,95   MaxIter=1   SDC=D   SeisCode=Yes   SeisLoad=Yes   ImpFactor=1   SystemRho=1   SystemSds=0,5   SystemR=8   SystemCd=5,5   Omega0=3   Provision=LRFD _
        AMethod="Direct Analysis"   SOMethod="General 2nd Order"   SRMethod="Tau-b Fixed"   NLCoeff=0,002   PhiB=0,9   PhiC=0,9   PhiTY=0,9   PhiTF=0,75   PhiV=0,9   PhiVRolledI=1   PhiVT=0,9   PlugWeld=Yes   HSSWelding=ERW   HSSReduceT=No _
        CheckDefl=No   DLRat=120   SDLAndLLRat=120   LLRat=360   TotalRat=240   NetRat=240
 
TABLE:  "PROGRAM CONTROL"
   ProgramName=SAP2000   Version=16.0.0   CurrUnits="N, m, C"   SteelCode="AISC 360-10"   ConcCode="ACI 318-11"   AlumCode="AA-ASD 2000"   ColdCode=AISI-ASD96   RegenHinge=Yes
 
TABLE:  "PROJECT INFORMATION"
   Item="Company Name"   Data=MSc
   Item="Client Name"
   Item="Project Name"
   Item="Project Number"
   Item="Model Name"
   Item="Model Description"
   Item="Revision Number"
   Item="Frame Type"
   Item=Engineer
   Item=Checker
   Item=Supervisor
   Item="Issue Code"
   Item="Design Code"
 
TABLE:  "REBAR SIZES"
   RebarID=#2   Area=0,000032258   Diameter=0,00635
   RebarID=#3   Area=7,09675996154547E-05   Diameter=0,009525
   RebarID=#4   Area=1,29032001922727E-04   Diameter=0,0127
   RebarID=#5   Area=1,99999601538181E-04   Diameter=0,015875
   RebarID=#6   Area=2,83870398461819E-04   Diameter=0,01905
   RebarID=#7   Area=3,87096015381813E-04   Diameter=0,022225
   RebarID=#8   Area=5,09676413843632E-04   Diameter=0,0254
   RebarID=#9   Area=0,00064516   Diameter=2,86512005329132E-02
   RebarID=#10   Area=8,1935318769455E-04   Diameter=3,22579995155334E-02
   RebarID=#11   Area=1,00644956308365E-03   Diameter=3,58139991521835E-02
   RebarID=#14   Area=0,00145161   Diameter=4,30021989583969E-02
   RebarID=#18   Area=0,00258064   Diameter=5,73277992248535E-02
   RebarID=10M   Area=1,00000004162606E-04   Diameter=1,13000003604438E-02
   RebarID=15M   Area=2,00000008325212E-04   Diameter=1,60000002402959E-02
   RebarID=20M   Area=3,00000012487818E-04   Diameter=1,95000002928606E-02
   RebarID=25M   Area=5,00000020813031E-04   Diameter=2,52000011414055E-02
   RebarID=30M   Area=7,00000029138243E-04   Diameter=2,99000000675832E-02
   RebarID=35M   Area=1,00000004162606E-03   Diameter=3,57000012990997E-02
   RebarID=45M   Area=1,50000006243909E-03   Diameter=4,37000014192476E-02
   RebarID=55M   Area=2,50000010406515E-03   Diameter=0,056400002372922
   RebarID=6d   Area=2,83000004150781E-05   Diameter=6,00000009011096E-03
   RebarID=8d   Area=5,03000013308514E-05   Diameter=8,00000012014795E-03
   RebarID=10d   Area=7,85000032676458E-05   Diameter=1,00000001501849E-02
   RebarID=12d   Area=1,13000004703745E-04   Diameter=1,20000001802219E-02
   RebarID=14d   Area=1,54000006410413E-04   Diameter=1,40000002102589E-02
   RebarID=16d   Area=2,01000008366838E-04   Diameter=1,60000002402959E-02
   RebarID=20d   Area=3,14000013070583E-04   Diameter=2,00000003003699E-02
   RebarID=25d   Area=4,91000020438396E-04   Diameter=2,50000003754623E-02
   RebarID=26d   Area=5,31000022103439E-04   Diameter=2,60000003904808E-02
   RebarID=28d   Area=6,16000025641654E-04   Diameter=2,80000004205178E-02
   RebarID=N12   Area=1,13000004703745E-04   Diameter=1,20000001802219E-02
   RebarID=N16   Area=2,01000008366838E-04   Diameter=1,60000002402959E-02
   RebarID=N20   Area=3,14000013070583E-04   Diameter=2,00000003003699E-02
   RebarID=N24   Area=4,5200001881498E-04   Diameter=2,40000003604438E-02
   RebarID=N28   Area=6,16000025641654E-04   Diameter=2,80000004205178E-02
   RebarID=N32   Area=8,04000033467353E-04   Diameter=3,20000004805918E-02
   RebarID=N36   Area=1,02000004245858E-03   Diameter=3,60000005406658E-02
 
END TABLE DATA
